ucsdMicrogridtest.dss
Clear

New Circuit.ucsdMicrogrid bus1=SDG&E_69KV basekv=69 pu=1.05 angle=0 frequency=60 MVAsc3=20000 MVAsc1=20000 x1r1=8.6 x0r0=8.9 BaseFreq=60
New Linecode.1_0_Cu R1=0.26903 X1=0.10827 R0=0.42979 X0=0.27231 Units=km
New Linecode.2_0_Cu R1=0.21654 X1=0.10499 R0=0.34121 X0=0.26903 Units=km
New Linecode.3_0_Cu R1=0.17224 X1=0.098425 R0=0.27067 X0=0.26247 Units=km
New Linecode.4_0_Cu R1=0.13451 X1=0.098425 R0=0.21326 X0=0.24934 Units=km
New Linecode.6_Cu R1=726.2139 X1=97.5394 R0=2288.6155 X0=240.2231 Units=km
New Linecode.10_Cu R1=1680.2822 X1=121.6207 R0=5295.4724 X0=299.4751 Units=km
New Linecode.250_Cu R1=1.1549 X1=1.6503 R0=7.0341 X0=6.6175 Units=km
New Linecode.350_Cu R1=0.69554 X1=0.74803 R0=1.1089 X0=1.8963 Units=km
New Linecode.500_Cu R1=0.059055 X1=0.088583 R0=0.095144 X0=0.2395 Units=km
New Linecode.600_Cu R1=0.02395 X1=0.13123 R0=0.14895 X0=0.69554 Units=km
New Linecode.750_Cu R1=0.042651 X1=0.082021 R0=0.068898 X0=0.21326 Units=km
New Line.CBL_0581 LineCode=500_Cu bus1=E_7_10_2_11 bus2=E_1_9_1_11 Units=m Length=99.06
New Line.CBL_0583 LineCode=600_Cu bus1=SS23_14 bus2=SS_23_WC Units=m Length=0.3048
New Line.CBL_0726 LineCode=750_Cu bus1=SS_126 bus2=BUS_0861 Units=m Length=0.3048
New Line.CBL_0727 LineCode=750_Cu bus1=SS_126 bus2=BUS_0862 Units=m Length=0.3048
New Line.CBL_0728 LineCode=750_Cu bus1=SS_127 bus2=BUS_0865 Units=m Length=0.3048
New Line.CBL_0729 LineCode=750_Cu bus1=SS_127 bus2=BUS_0866 Units=m Length=0.3048
New Line.CBL_E_4_1_404 LineCode=750_Cu bus1=E_4_404 bus2=E_4_1_404 Units=m Length=57.912
New Line.CBL_E_4_1_405 LineCode=750_Cu bus1=E_4_405 bus2=E_4_1_405 Units=m Length=57.912
New Line.CBL_E_4_1_409 LineCode=500_Cu bus1=E_4_409 bus2=E_4_1_409 Units=m Length=61.2648
New Line.CBL_E_4_2_404 LineCode=750_Cu bus1=E_4_1_404 bus2=E_4_2_404 Units=m Length=67.9704
New Line.CBL_E_4_2_405 LineCode=750_Cu bus1=E_4_1_405 bus2=E_4_2_405 Units=m Length=67.9704
New Line.CBL_E_4_2_409 LineCode=500_Cu bus1=E_4_1_409 bus2=E_4_2_409 Units=m Length=74.676
New Line.CBL_E_4_404 LineCode=750_Cu bus1=MCSS_MB bus2=E_4_404 Units=m Length=38.1
New Line.CBL_E_4_405 LineCode=750_Cu bus1=MCSS_MA bus2=E_4_405 Units=m Length=30.48
New Line.CBL_E_4_407 LineCode=750_Cu bus1=MCSS_MA bus2=E_4_407 Units=m Length=30.48
New Line.CBL_E_4_409 LineCode=500_Cu bus1=MCSS_MA bus2=E_4_409 Units=m Length=33.528
New Line.CBL_E_4_413 LineCode=500_Cu bus1=MCSS_MA bus2=E_4_413 Units=m Length=64.008
New Line.CBL_E_4_9_413 LineCode=750_Cu bus1=E_5_8_1_413 bus2=E_4_9_413 Units=m Length=152.4
New Line.CBL_E_5_3_1_SS_138 LineCode=500_Cu bus1=E_5_3_SS_138 bus2=E_5_3_1_SS_138 Units=m Length=6.096
New Line.CBL_E_5_3_412 LineCode=500_Cu bus1=E_5_1_412 bus2=E_5_3_412 Units=m Length=265.176
New Line.CBL_E_5_3_437 LineCode=500_Cu bus1=E_5_1_437 bus2=E_5_3_437 Units=m Length=265.176
New Line.CBL_E_5_3_SS_138 LineCode=500_Cu bus1=SS_51_EC bus2=E_5_3_SS_138 Units=m Length=15.24
New Line.CBL_E_5_4_2_404 LineCode=750_Cu bus1=E_4_2_404 bus2=E_5_4_2_404 Units=m Length=38.1
New Line.CBL_E_5_4_2_405 LineCode=750_Cu bus1=E_4_2_405 bus2=E_5_4_2_405 Units=m Length=38.1
New Line.CBL_E_5_4_406 LineCode=750_Cu bus1=E_4_406 bus2=E_5_4_406 Units=m Length=62.484
New Line.CBL_E_5_4_407 LineCode=750_Cu bus1=E_4_407 bus2=E_5_4_407 Units=m Length=62.484
New Line.CBL_E_5_4_413 LineCode=500_Cu bus1=E_4_413 bus2=E_5_4_413 Units=m Length=62.484
New Line.CBL_E_5_4_436 LineCode=500_Cu bus1=E_4_436 bus2=E_5_4_436 Units=m Length=62.484
New Line.CBL_E_5_7_413 LineCode=750_Cu bus1=E_5_4_413 bus2=E_5_7_413 Units=m Length=108.5088
New Line.CBL_E_5_8_1_413 LineCode=750_Cu bus1=E_5_7_413 bus2=E_5_8_1_413 Units=m Length=135.636
New Line.CBL_E_6A_5_EC_12 LineCode=750_Cu bus1=E_6A_2_EC_12 bus2=E_6A_5_EC_12 Units=m Length=127.1016
New Line.CBL_E_6A_5_EC_25 LineCode=750_Cu bus1=E_6A_2_EC_25 bus2=E_6A_5_EC_25 Units=m Length=127.1016
New Line.CBL_E_6A_5_EC_37 LineCode=750_Cu bus1=E_5_1_37 bus2=E_6A_5_EC_37 Units=m Length=129.2352
New Line.CBL_E_6A_6_EC_12 LineCode=750_Cu bus1=E_6A_5_EC_12 bus2=E_6A_6_EC_12 Units=m Length=132.588
New Line.CBL_E_6A_6_EC_25 LineCode=750_Cu bus1=E_6A_5_EC_25 bus2=E_6A_6_EC_25 Units=m Length=132.588
New Line.CBL_E_6A_6_EC_37 LineCode=750_Cu bus1=E_6A_5_EC_37 bus2=E_6A_6_EC_37 Units=m Length=132.588
New Line.CBL_EMH_E_4_406 LineCode=750_Cu bus1=MCSS_MB bus2=E_4_406 Units=m Length=38.1
New Line.CBL_EMH_E_4_436 LineCode=500_Cu bus1=MCSS_MC bus2=E_4_436 Units=m Length=48.768
New Line.CBL_EMH_E_5_1_412 LineCode=500_Cu bus1=E_6A_5_412 bus2=E_5_1_412 Units=m Length=129.2352
New Line.CBL_EMH_E_5_1A_437 LineCode=500_Cu bus1=E_6A_5_MA_437 bus2=E_5_1_437 Units=m Length=129.2352
New Line.CBL_EMH_E_5_8_1_406 LineCode=750_Cu bus1=E_5_7_406 bus2=E_5_8_1_406 Units=m Length=135.636
New Line.CBL_EMH_E_5_8_1_407 LineCode=750_Cu bus1=E_5_7_407 bus2=E_5_8_1_407 Units=m Length=135.636
New Line.CBL_EMH_E_6A_5_412 LineCode=500_Cu bus1=E_6A_6_412 bus2=E_6A_5_412 Units=m Length=132.588
New Line.CBL_EMH_E_6A_5_437 LineCode=500_Cu bus1=E_6A_6_MA_437 bus2=E_6A_5_MA_437 Units=m Length=132.588
New Line.CBl_EMH_E_6A_6_437 LineCode=500_Cu bus1=MCSS_MC bus2=E_6A_6_MA_437 Units=m Length=28.956
New Line.CBL_EMH_E6A_6_412 LineCode=500_Cu bus1=MCSS_MB bus2=E_6A_6_412 Units=m Length=36.576
New Line.CBL_MCSS_MA LineCode=750_Cu bus1=E_6A_6_EC_25 bus2=MCSS_MA Units=m Length=38.1
New Line.CBL_MCSS_MB LineCode=750_Cu bus1=E_6A_6_EC_12 bus2=MCSS_MB Units=m Length=30.48
New Line.CBL_MCSS_MC LineCode=750_Cu bus1=E_6A_6_EC_37 bus2=MCSS_MC Units=m Length=24.384
New Line.CBL_SS_102_406 LineCode=750_Cu bus1=E_5_8_1_406 bus2=SS_102_EC Units=m Length=81.0768
New Line.CBL_SS_103_407 LineCode=750_Cu bus1=E_5_8_1_407 bus2=SS_103_EC Units=m Length=81.0768
New Line.CBL_SS_114_EC LineCode=750_Cu bus1=E_5_4_2_405 bus2=SS_114_EC Units=m Length=68.58
New Line.CBL_SS_115_EC LineCode=750_Cu bus1=E_5_4_2_404 bus2=SS_115_EC Units=m Length=68.58
New Line.CBL_SS_125_MCSS_409 LineCode=500_Cu bus1=E_4_2_409 bus2=SS_125_MCSS Units=m Length=20.1168
New Line.CBL_SS_126_407 LineCode=750_Cu bus1=E_5_8_1_407 bus2=SS_126 Units=m Length=88.392
New Line.CBL_SS_127_406 LineCode=750_Cu bus1=E_5_8_1_406 bus2=SS_127 Units=m Length=88.392
New Line.CBL_SS_130 LineCode=750_Cu bus1=E_4_2_405 bus2=SS_130 Units=m Length=524.5608
New Line.CBL_SS_131 LineCode=750_Cu bus1=E_4_2_404 bus2=SS_131 Units=m Length=525.78
New Line.CBL_SS_138 LineCode=500_Cu bus1=E_5_3_2_SS_138 bus2=SS_138 Units=m Length=15.24
New Line.CBL_T_304_EC_PS LineCode=500_Cu bus1=SS_125_MCSS bus2=BUS_PD_T_304 Units=m Length=7.62
New Line.CBL_T_JMC_TEMP_PWR LineCode=500_Cu bus1=SS_125_MCSS bus2=BUS_JMC_TEMP_PWR_LI_SW Units=m Length=426.72
New Line.CBL_T_JMC_TEMP_PWR_PRI LineCode=4_0_Cu bus1=BUS_JMC_TEMP_PWR_LI_SW bus2=BUS_JMC_TEMP_PWR_PRI Units=m Length=3.6576
New Line.CBL_XF_CPT_1A LineCode=1_0_Cu bus1=MCSS_MA bus2=BUS_XF_CPT_1A Units=m Length=27.7368
New Line.CBL_XF_CPT_1B LineCode=1_0_Cu bus1=MCSS_MB bus2=BUS_XF_CPT_1B Units=m Length=30.48
New Line.CBL_XF_CPT_1C LineCode=2_0_Cu bus1=MCSS_MC bus2=BUS_XF_CPT_1C Units=m Length=24.384
New Line.CBL_XF_CPT_C LineCode=2_0_Cu bus1=EAST_CAMPUS_1 bus2=BUS_XF_CPT_C_PRI Units=m Length=16.764
New Line.CBL_XF_CPT_E LineCode=2_0_Cu bus1=EAST_CAMPUS_1 bus2=BUS_XF_CPT_E_PRI Units=m Length=15.24
New Line.CBL_XF_CPT_W LineCode=2_0_Cu bus1=EAST_CAMPUS_1 bus2=BUS_XF_CPT_W_PRI Units=m Length=18.288
New Line.F_1SG1 LineCode=500_Cu bus1=SG1_BUS bus2=PSB Units=m Length=85.344
New Line.F_3RD_C_S166 LineCode=2_0_Cu bus1=E_7_19_4 bus2=3RD_C_S166_PRI Units=m Length=71.628
New Line.F_3RD_C_S206 LineCode=500_Cu bus1=E_7_19_1 bus2=3RD_C_S206PRI Units=m Length=88.392
New Line.F_3RD_C_S207 LineCode=500_Cu bus1=3RD_C_S206PRI bus2=T_207_PRI Units=m Length=91.44
New Line.F_ALEX_SP LineCode=4_0_Cu bus1=E_7_26_1 bus2=ALEX_SP_PRI Units=m Length=79.248
New Line.F_ARGO_BLAKE LineCode=500_Cu bus1=SS_35_RC bus2=T_342_PRI Units=m Length=41.148
New Line.F_ATHL_FIELD LineCode=250_Cu bus1=E_7_23_1 bus2=T_242_PRI Units=m Length=167.64
New Line.F_B_BOX_REST LineCode=500_Cu bus1=SS_88_RC bus2=B_BOX_REST_PRI Units=m Length=85.344
New Line.F_B_SCI_PB3_102 LineCode=500_Cu bus1=PB_1_102 bus2=B_SCI_PB3_102 Units=m Length=47.244
New Line.F_B_SCI_PB3_105 LineCode=500_Cu bus1=PB_1_105 bus2=B_SCI_PB3_105 Units=m Length=47.244
New Line.F_B_SCI_PB4_102 LineCode=500_Cu bus1=B_SCI_PB3_102 bus2=B_SCI_PB4_102 Units=m Length=51.816
New Line.F_B_SCI_PB4_105 LineCode=500_Cu bus1=B_SCI_PB3_105 bus2=B_SCI_PB4_105 Units=m Length=51.816
New Line.F_BIO_MED LineCode=500_Cu bus1=SS_95_SOM bus2=PRI_BIO_MED Units=m Length=38.1
New Line.F_BIRCH_AQ LineCode=4_0_Cu bus1=SS_64_SIO bus2=BUS_T_223_PRI Units=m Length=76.2
New Line.F_BLACK_BOX LineCode=500_Cu bus1=SS_88_RC bus2=BLACK_BOX_PRI Units=m Length=30.48
New Line.F_BLDG_3C_12 LineCode=500_Cu bus1=BLDG_3B_12KV bus2=BLDG_3C_12KV Units=m Length=42.672
New Line.F_BLDG_3C_15 LineCode=500_Cu bus1=BLDG_3B_15 bus2=BLDG3C_15_12KV Units=m Length=42.672
New Line.F_BONNER_LCA LineCode=2_0_Cu bus1=SS_36_RC bus2=SW_T_119 Units=m Length=10.668
New Line.F_BONNER_LCB LineCode=2_0_Cu bus1=SS_36_RC bus2=SW_T_120 Units=m Length=13.716
New Line.F_BONNER_LCC LineCode=2_0_Cu bus1=SS_36_RC bus2=SW_T_121_1 Units=m Length=76.2
New Line.F_BRAIN_IMAGE LineCode=500_Cu bus1=SS_95_SOM bus2=PRI_BIO_MED_1 Units=m Length=36.576
New Line.F_BSB_MTF_TUN_102 LineCode=500_Cu bus1=E_1_2_102 bus2=BSB_MTF_TUN_102 Units=m Length=67.056
New Line.F_BSB_MTF_TUN_105 LineCode=500_Cu bus1=E_1_2_105 bus2=BSB_MTF_TUN_105 Units=m Length=67.056
New Line.F_BUS_NC14 LineCode=500_Cu bus1=BUS_NC_14 bus2=N_CAMPUS_B Units=m Length=0.9144
New Line.F_BUS_NC15 LineCode=500_Cu bus1=E_7_C_NC3 bus2=N_CAMPUS_C Units=m Length=152.4
New Line.F_BUS_NC17 LineCode=500_Cu bus1=E_7_C_NC2 bus2=N_CAMPUS_B Units=m Length=152.4
New Line.F_BUS_NC18 LineCode=500_Cu bus1=BUS_NC17 bus2=N_CAMPUS_A Units=m Length=0.9144
New Line.F_BUS_NC19 LineCode=500_Cu bus1=E_7_B_NC3 bus2=E_7_C_NC3 Units=m Length=96.012
New Line.F_C_LIB_S182 LineCode=500_Cu bus1=E_1_6_8 bus2=S182_8 Units=m Length=45.72
New Line.F_C_LIB_S183 LineCode=500_Cu bus1=S182_8 bus2=S183_8 Units=m Length=0.9144
New Line.F_C_LIB_S184 LineCode=500_Cu bus1=S183_8 bus2=C_LIB_S184_PRI Units=m Length=0.3048
New Line.F_C_UNION LineCode=500_Cu bus1=SS_50_SC bus2=T_253_PRI Units=m Length=176.784
New Line.F_CB_52_TB LineCode=250_Cu bus1=BUS_52_TB bus2=MSG Units=m Length=15.24
New Line.F_CH_1 LineCode=500_Cu bus1=SUB_1A bus2=BUS_CH_1 Units=m Length=9.144
New Line.F_CH_2 LineCode=500_Cu bus1=SUB_1A bus2=BUS_CH_2 Units=m Length=9.144
New Line.F_CLASSROOM LineCode=500_Cu bus1=SS_28_SIO bus2=BUS_T_238_PRI Units=m Length=6.096
New Line.F_CLIN_SCI_102 LineCode=500_Cu bus1=E_1_2_2_1_102 bus2=CLIN_SCI_12KV Units=m Length=164.592
New Line.F_CT34_PSB LineCode=500_Cu bus1=PSB bus2=SW_T_087 Units=m Length=45.72
New Line.F_E_1_0_1_104 LineCode=500_Cu bus1=E_1_0_104 bus2=E_1_0_1_104 Units=m Length=124.968
New Line.F_E_1_0_1_107 LineCode=500_Cu bus1=E_1_0_107 bus2=E_1_0_1_107 Units=m Length=124.968
New Line.F_E_1_0_104 LineCode=500_Cu bus1=REVELLE_2 bus2=E_1_0_104 Units=m Length=106.68
New Line.F_E_1_0_107 LineCode=500_Cu bus1=REVELLE_1 bus2=E_1_0_107 Units=m Length=106.68
New Line.F_E_1_0_1A_104 LineCode=500_Cu bus1=E_1_0_1_104 bus2=E_1_0_1A_104 Units=m Length=82.296
New Line.F_E_1_0_1A_107 LineCode=500_Cu bus1=E_1_0_1_107 bus2=E_1_0_1A_107 Units=m Length=82.296
New Line.F_E_1_0_2_107 LineCode=500_Cu bus1=E_1_0_1A_107 bus2=E_1_0_2_107 Units=m Length=121.92
New Line.F_E_1_0_2A_104 LineCode=500_Cu bus1=E_1_0_1A_104 bus2=E_1_0_2A_104 Units=m Length=134.112
New Line.F_E_1_0_2A_107 LineCode=500_Cu bus1=E_1_0_1A_107 bus2=E_1_0_2A_107 Units=m Length=134.112
New Line.F_E_1_0_2B_104 LineCode=500_Cu bus1=E_1_0_2A_104 bus2=E_1_0_2B_104 Units=m Length=45.72
New Line.F_E_1_0_2B_107__1 LineCode=500_Cu bus1=E_1_0_2A_107 bus2=E_1_0_2B_107 Units=m Length=45.72
New Line.F_E_1_0_2B_107__2 LineCode=500_Cu bus1=E_1_0_2B_107 bus2=SS_136 Units=m Length=45.72
New Line.F_E_1_0_3A_104 LineCode=500_Cu bus1=E_1_0_2A_104 bus2=E_1_0_3A_104 Units=m Length=45.72
New Line.F_E_1_0_3A_107 LineCode=500_Cu bus1=E_1_0_2A_107 bus2=E_1_0_3A_107 Units=m Length=45.72
New Line.F_E_1_1_102 LineCode=500_Cu bus1=E_1_2_0_102 bus2=E_1_1_102 Units=m Length=115.824
New Line.F_E_1_1_105 LineCode=500_Cu bus1=E_1_2_0_105 bus2=E_1_1_105 Units=m Length=115.824
New Line.F_E_1_1_19 LineCode=500_Cu bus1=E_1_2_0_19 bus2=E_1_1_19 Units=m Length=115.824
New Line.F_E_1_1_4 LineCode=500_Cu bus1=E_1_2_0_4 bus2=E_1_1_4 Units=m Length=115.824
New Line.F_E_1_1_EG LineCode=250_Cu bus1=E_2_1_EG bus2=E_1_1_EG Units=m Length=109.728
New Line.F_E_1_10_11 LineCode=500_Cu bus1=E_1_10_11 bus2=E_1_11_11 Units=m Length=68.58
New Line.F_E_1_10_8 LineCode=500_Cu bus1=E_1_10_8 bus2=E_1_11_8 Units=m Length=68.58
New Line.F_E_1_11_11 LineCode=500_Cu bus1=E_1_11_11 bus2=E_1_12_11 Units=m Length=91.44
New Line.F_E_1_11_8 LineCode=500_Cu bus1=E_1_11_8 bus2=E_1_12_8 Units=m Length=91.44
New Line.F_E_1_19 LineCode=500_Cu bus1=E_7_17_1_338 bus2=SS_120_ERC Units=m Length=129.54
New Line.F_E_1_2_0_102 LineCode=500_Cu bus1=E_1_2_102 bus2=E_1_2_0_102 Units=m Length=9.144
New Line.F_E_1_2_0_105 LineCode=500_Cu bus1=E_1_2_105 bus2=E_1_2_0_105 Units=m Length=9.144
New Line.F_E_1_2_0_19 LineCode=500_Cu bus1=E_1_2_19 bus2=E_1_2_0_19 Units=m Length=9.144
New Line.F_E_1_2_0_4 LineCode=500_Cu bus1=E_1_2_4 bus2=E_1_2_0_4 Units=m Length=9.144
New Line.F_E_1_2_1_102 LineCode=500_Cu bus1=E_1_2_102 bus2=E_1_2_1_102 Units=m Length=102.108
New Line.F_E_1_2_1_105 LineCode=500_Cu bus1=E_1_2_105 bus2=E_1_2_1_105 Units=m Length=102.108
New Line.F_E_1_2_102 LineCode=500_Cu bus1=E_1_3_102 bus2=E_1_2_102 Units=m Length=124.968
New Line.F_E_1_2_105 LineCode=500_Cu bus1=E_1_3_105 bus2=E_1_2_105 Units=m Length=124.968
New Line.F_E_1_2_19 LineCode=500_Cu bus1=E_1_3_19 bus2=E_1_2_19 Units=m Length=124.968
New Line.F_E_1_2_2_1_102 LineCode=500_Cu bus1=E_1_2_2_102 bus2=E_1_2_2_1_102 Units=m Length=3.048
New Line.F_E_1_2_2_102 LineCode=500_Cu bus1=B_SCI_PB4_102 bus2=E_1_2_2_102 Units=m Length=48.768
New Line.F_E_1_2_2_105 LineCode=500_Cu bus1=B_SCI_PB4_105 bus2=E_1_2_2_105 Units=m Length=48.768
New Line.F_E_1_2_3_105 LineCode=500_Cu bus1=E_1_2_2_105 bus2=E_1_2_3_105 Units=m Length=99.06
New Line.F_E_1_2_4 LineCode=500_Cu bus1=E_1_3_4 bus2=E_1_2_4 Units=m Length=124.968
New Line.F_E_1_2_EG LineCode=250_Cu bus1=SS_84 bus2=E_1_2_EG Units=m Length=9.144
New Line.F_E_1_20 LineCode=500_Cu bus1=SS_119_ERC bus2=E_7_17_1_307 Units=m Length=129.54
New Line.F_E_1_3_11 LineCode=500_Cu bus1=E_1_4_11 bus2=E_1_3_11 Units=m Length=123.444
New Line.F_E_1_3_19 LineCode=500_Cu bus1=E_1_3_19 bus2=E_6_16_19 Units=m Length=71.628
New Line.F_E_1_3_4 LineCode=500_Cu bus1=E_1_3_4 bus2=E_6_16_4 Units=m Length=71.628
New Line.F_E_1_3_8 LineCode=500_Cu bus1=E_1_4_8 bus2=E_1_3_8 Units=m Length=123.444
New Line.F_E_1_4_1_11 LineCode=500_Cu bus1=E_1_4_1_11 bus2=E_1_4_11 Units=m Length=77.724
New Line.F_E_1_4_1_8 LineCode=500_Cu bus1=E_1_4_1_8 bus2=E_1_4_8 Units=m Length=77.724
New Line.F_E_1_4_11 LineCode=500_Cu bus1=E_1_5_11 bus2=E_1_4_11 Units=m Length=144.78
New Line.F_E_1_4_2_11 LineCode=500_Cu bus1=E_1_4_2_11 bus2=E_1_4_1_11 Units=m Length=91.44
New Line.F_E_1_4_2_8 LineCode=500_Cu bus1=E_1_4_2_8 bus2=E_1_4_1_8 Units=m Length=91.44
New Line.F_E_1_4_3_11 LineCode=500_Cu bus1=E_1_4_3_11 bus2=E_1_4_2_11 Units=m Length=91.44
New Line.F_E_1_4_4_1_304 LineCode=500_Cu bus1=E_1_4_4_1_304 bus2=E_1_4_4_304 Units=m Length=82.296
New Line.F_E_1_4_4_1_305 LineCode=500_Cu bus1=E_1_4_4_1_305 bus2=E_1_4_4_305 Units=m Length=82.296
New Line.F_E_1_4_4_304 LineCode=500_Cu bus1=E_1_9_2_304 bus2=E_1_4_4_304 Units=m Length=109.728
New Line.F_E_1_4_4_305 LineCode=500_Cu bus1=E_1_9_2_305 bus2=E_1_4_4_305 Units=m Length=109.728
New Line.F_E_1_4_5_304 LineCode=500_Cu bus1=E_1_4_5_304 bus2=E_1_4_4_304 Units=m Length=161.544
New Line.F_E_1_4_5_305 LineCode=500_Cu bus1=E_1_4_5_305 bus2=E_1_4_4_305 Units=m Length=161.544
New Line.F_E_1_4_8 LineCode=500_Cu bus1=E_1_5_8 bus2=E_1_4_8 Units=m Length=144.78
New Line.F_E_1_5_11 LineCode=500_Cu bus1=E_1_6_11 bus2=E_1_5_11 Units=m Length=97.536
New Line.F_E_1_5_8 LineCode=500_Cu bus1=E_1_6_8 bus2=E_1_5_8 Units=m Length=97.536
New Line.F_E_1_6_11 LineCode=500_Cu bus1=E_1_7_11 bus2=E_1_6_11 Units=m Length=121.92
New Line.F_E_1_6_8 LineCode=500_Cu bus1=E_1_7_8 bus2=E_1_6_8 Units=m Length=121.92
New Line.F_E_1_7_11 LineCode=500_Cu bus1=E_1_8_11 bus2=E_1_7_11 Units=m Length=118.872
New Line.F_E_1_7_8 LineCode=500_Cu bus1=E_1_8_8 bus2=E_1_7_8 Units=m Length=118.872
New Line.F_E_1_8_11 LineCode=500_Cu bus1=E_1_9_11 bus2=E_1_8_11 Units=m Length=30.48
New Line.F_E_1_8_8 LineCode=500_Cu bus1=E_1_9_8 bus2=E_1_8_8 Units=m Length=30.48
New Line.F_E_1_9_1 LineCode=500_Cu bus1=E_1_9_8 bus2=E_1_9_1_8 Units=m Length=12.192
New Line.F_E_1_9_1_11 LineCode=500_Cu bus1=E_1_9_11 bus2=E_1_9_1_11 Units=m Length=12.192
New Line.F_E_1_9_1_8 LineCode=500_Cu bus1=E_7_10_2_8 bus2=E_1_9_1_8 Units=m Length=99.06
New Line.F_E_1_9_11 LineCode=500_Cu bus1=E_1_10_11 bus2=E_1_9_11 Units=m Length=91.44
New Line.F_E_1_9_2_11 LineCode=500_Cu bus1=E_1_9_1_11 bus2=E_1_9_2_11 Units=m Length=71.628
New Line.F_E_1_9_2_304 LineCode=500_Cu bus1=E_1_9_2_304 bus2=E_1_9_3_304 Units=m Length=109.728
New Line.F_E_1_9_2_305 LineCode=500_Cu bus1=E_1_9_2_305 bus2=E_1_9_3_305 Units=m Length=109.728
New Line.F_E_1_9_2_8 LineCode=500_Cu bus1=E_1_9_1_8 bus2=E_1_9_2_8 Units=m Length=71.628
New Line.F_E_1_9_3_304 LineCode=500_Cu bus1=E_1_9_4_304 bus2=E_1_9_3_304 Units=m Length=73.152
New Line.F_E_1_9_3_305 LineCode=500_Cu bus1=E_1_9_4_305 bus2=E_1_9_3_305 Units=m Length=73.152
New Line.F_E_1_9_4_304 LineCode=500_Cu bus1=E_1_9_4_304 bus2=E_1_9_5_304 Units=m Length=100.584
New Line.F_E_1_9_4_305 LineCode=500_Cu bus1=E_1_9_4_305 bus2=E_1_9_5_305 Units=m Length=100.584
New Line.F_E_1_9_5_304 LineCode=500_Cu bus1=E_7_C_304 bus2=E_1_9_5_304 Units=m Length=103.632
New Line.F_E_1_9_5_305 LineCode=500_Cu bus1=E_7_C_305 bus2=E_1_9_5_305 Units=m Length=103.632
New Line.F_E_1_9_8 LineCode=500_Cu bus1=E_1_10_8 bus2=E_1_9_8 Units=m Length=91.44
New Line.F_E_10_10_109 LineCode=500_Cu bus1=E_10_11_109 bus2=E_10_10_109 Units=m Length=54.864
New Line.F_E_10_10_110 LineCode=500_Cu bus1=E_10_11_110 bus2=E_10_10_110 Units=m Length=54.864
New Line.F_E_10_10_202 LineCode=4_0_Cu bus1=E_10_11_202 bus2=E_10_10_202 Units=m Length=54.864
New Line.F_E_10_10_205 LineCode=4_0_Cu bus1=E_10_11_205 bus2=E_10_10_205 Units=m Length=54.864
New Line.F_E_10_11_1_202 LineCode=4_0_Cu bus1=E_10_10_202 bus2=E_10_11_1_202 Units=m Length=96.012
New Line.F_E_10_11_1_205 LineCode=4_0_Cu bus1=E_10_10_205 bus2=E_10_11_1_205 Units=m Length=96.012
New Line.F_E_10_11_10_109 LineCode=500_Cu bus1=E_10_11_11_109 bus2=E_10_11_10_109 Units=m Length=33.528
New Line.F_E_10_11_10_110 LineCode=500_Cu bus1=E_10_11_11_110 bus2=E_10_11_10_110 Units=m Length=33.528
New Line.F_E_10_11_109 LineCode=500_Cu bus1=E_10_11_2_109 bus2=E_10_11_109 Units=m Length=94.488
New Line.F_E_10_11_11_109 LineCode=500_Cu bus1=E_10_11_12_109 bus2=E_10_11_11_109 Units=m Length=105.156
New Line.F_E_10_11_11_110 LineCode=500_Cu bus1=E_10_11_12_110 bus2=E_10_11_11_110 Units=m Length=105.156
New Line.F_E_10_11_110 LineCode=500_Cu bus1=E_10_11_2_110 bus2=E_10_11_110 Units=m Length=94.488
New Line.F_E_10_11_12_109 LineCode=500_Cu bus1=E_10_11_13_109 bus2=E_10_11_12_109 Units=m Length=120.396
New Line.F_E_10_11_12_110 LineCode=500_Cu bus1=E_10_11_13_110 bus2=E_10_11_12_110 Units=m Length=120.396
...
New Transformer.T_105_BSB Windings=2 Buses=[BUS_T_105_PRI T_105_SEC] Conns=[delta wye] kVs=[4.16        0.48] kVAs=[1000  1333] %Rs=[1  1] XHL=5.73 %Noloadloss=0 %imag=0 MaxTap=1.05 MinTap=0.95 NumTaps=4
New Transformer.T_106_MED_TEACH Windings=2 Buses=[BUS_T_106_PRI MED_TEACHING] Conns=[delta wye] kVs=[12.47         0.48] kVAs=[1500  2000] %Rs=[0.91        0.91] XHL=5.94 %Noloadloss=0 %imag=0 MaxTap=1.05 MinTap=0.95 NumTaps=4
New Transformer.T_107_MTF Windings=2 Buses=[BUS_T_107_PRI ED2] Conns=[delta wye] kVs=[4.16        0.48] kVAs=[300  300] %Rs=[0.98        0.98] XHL=4.08 %Noloadloss=0 %imag=0 MaxTap=1.05 MinTap=0.95 NumTaps=4
New Transformer.T_109_HEALTH_CEN Windings=2 Buses=[SS_56_MC HEALTH_CENTER] Conns=[delta wye] kVs=[12.47        0.208] kVAs=[300  300] %Rs=[1.17        1.17] XHL=4.86 %Noloadloss=0 %imag=0 MaxTap=1.05 MinTap=0.95 NumTaps=4
New Transformer.T_112_US_TF Windings=2 Buses=[BUS_T_112_PRI SOM_SUB_E] Conns=[delta wye] kVs=[4.16        0.48] kVAs=[1000  1000] %Rs=[1.07        1.07] XHL=6.11 %Noloadloss=0 %imag=0 MaxTap=1.05 MinTap=0.95 NumTaps=4
New Transformer.T_114 Windings=2 Buses=[BUS_T_114_PRI T_114_SEC] Conns=[delta wye] kVs=[12.47         0.48] kVAs=[1500  1500] %Rs=[0.88        0.88] XHL=5.76 %Noloadloss=0 %imag=0 MaxTap=1.05 MinTap=0.95 NumTaps=4
New Transformer.T_115 Windings=2 Buses=[BUS_T_115_PRI ED6] Conns=[delta wye] kVs=[4.16       0.208] kVAs=[150  150] %Rs=[1.42        1.42] XHL=5.11 %Noloadloss=0 %imag=0 MaxTap=1.05 MinTap=0.95 NumTaps=4
New Transformer.T_116_BLDG_3B Windings=2 Buses=[SW_T_303/304 CRB_3B_208V] Conns=[delta wye] kVs=[12.47        0.208] kVAs=[750  750] %Rs=[1.12        1.12] XHL=5.87 %Noloadloss=0 %imag=0 MaxTap=1.05 MinTap=0.95 NumTaps=4
New Transformer.T_117_BLDG_3B Windings=2 Buses=[SW_T_301/302 CRB_3B] Conns=[delta wye] kVs=[12.47         0.48] kVAs=[750  750] %Rs=[1.02        1.02] XHL=5.35 %Noloadloss=0 %imag=0 MaxTap=1.05 MinTap=0.95 NumTaps=4
New Transformer.T_118_BLDG_3C Windings=2 Buses=[SW_T_305/306 COG_SCI_3C_480V] Conns=[delta wye] kVs=[12.47         0.48] kVAs=[500  500] %Rs=[1.09        1.09] XHL=5.12 %Noloadloss=0 %imag=0 MaxTap=1.05 MinTap=0.95 NumTaps=4
New Transformer.T_119_BLDG_3C Windings=2 Buses=[SW_T_307/308 COG_SCI_3C_208V] Conns=[delta wye] kVs=[12.47        0.208] kVAs=[300  300] %Rs=[1.25        1.25] XHL=5.2 %Noloadloss=0 %imag=0 MaxTap=1.05 MinTap=0.95 NumTaps=4
New Transformer.T_120_BLDG_3F Windings=2 Buses=[SW_T_309/310 MEDIA_3F_480V] Conns=[delta wye] kVs=[12.47         0.48] kVAs=[300  300] %Rs=[1.19        1.19] XHL=4.93 %Noloadloss=0 %imag=0 MaxTap=1.05 MinTap=0.95 NumTaps=4
New Transformer.T_121_BLDG_3F Windings=2 Buses=[SW_T_311/312 MEDIA_3F_208V] Conns=[delta wye] kVs=[12.47        0.208] kVAs=[300  300] %Rs=[1.27        1.27] XHL=5.25 %Noloadloss=0 %imag=0 MaxTap=1.05 MinTap=0.95 NumTaps=4
New Transformer.T_123_HUBBS_HALL Windings=2 Buses=[BUS_T_123_PRI HUBBS_HALL] Conns=[delta wye] kVs=[12.47         0.48] kVAs=[2000  2000] %Rs=[0.86        0.86] XHL=6.24 %Noloadloss=0 %imag=0 MaxTap=1.05 MinTap=0.95 NumTaps=4
New Transformer.T_124_MARINE_SCI Windings=2 Buses=[BUS_T_124_PRI MARINE_SCIENCE] Conns=[delta wye] kVs=[12.47        0.208] kVAs=[300  300] %Rs=[0.36        0.36] XHL=1.48 %Noloadloss=0 %imag=0 MaxTap=1.05 MinTap=0.95 NumTaps=4
New Transformer.T_126_NIER Windings=2 Buses=[BUS_T_126_PRI NIERENBURG] Conns=[delta wye] kVs=[12.47         0.48] kVAs=[750  750] %Rs=[1.09        1.09] XHL=5.71 %Noloadloss=0 %imag=0 MaxTap=1.05 MinTap=0.95 NumTaps=4
New Transformer.T_134_STUD Windings=2 Buses=[STUDENT_PRI STUDENT_T226] Conns=[delta wye] kVs=[12.47        0.208] kVAs=[300  300] %Rs=[1.15        1.15] XHL=4.76 %Noloadloss=0 %imag=0 MaxTap=1.05 MinTap=0.95 NumTaps=4
New Transformer.T_135_FACULTY Windings=2 Buses=[SS_41_MC FACULTY_CLUB] Conns=[delta wye] kVs=[12.47        0.208] kVAs=[300  300] %Rs=[0.94        0.94] XHL=3.9 %Noloadloss=0 %imag=0 MaxTap=1.05 MinTap=0.95 NumTaps=4
New Transformer.T_136_POWELL Windings=2 Buses=[BUS_T_136_PRI POWELL_STRUCT] Conns=[delta wye] kVs=[12.47         0.48] kVAs=[2000  2240] %Rs=[0.71        0.71] XHL=5.67 %Noloadloss=0 %imag=0 MaxTap=1.05 MinTap=0.95 NumTaps=4
New Transformer.T_137_EBU1 Windings=2 Buses=[T_137_PRI T_137_SEC_EBU1] Conns=[delta wye] kVs=[12.47         0.48] kVAs=[1500  2000] %Rs=[0.93        0.93] XHL=6.11 %Noloadloss=0 %imag=0 MaxTap=1.05 MinTap=0.95 NumTaps=4
New Transformer.T_138_EBU1 Windings=2 Buses=[T_138_PRI EBU1_T_138] Conns=[delta wye] kVs=[12.47         0.48] kVAs=[1500  2000] %Rs=[0.75        0.75] XHL=6.02 %Noloadloss=0 %imag=0 MaxTap=1.05 MinTap=0.95 NumTaps=4
New Transformer.T_139_EBU1 Windings=2 Buses=[BUS_T_139_PRI EBU1_T_139] Conns=[delta wye] kVs=[12.47        0.208] kVAs=[1000  1333] %Rs=[1.07        1.07] XHL=6.12 %Noloadloss=0 %imag=0 MaxTap=1.05 MinTap=0.95 NumTaps=4
New Transformer.T_140_EBU1 Windings=2 Buses=[T_140_PRI EBU1_T_140] Conns=[delta wye] kVs=[12.47        0.208] kVAs=[750  1000] %Rs=[1.07        1.07] XHL=5.61 %Noloadloss=0 %imag=0 MaxTap=1.05 MinTap=0.95 NumTaps=4
New Transformer.T_143_UREY Windings=2 Buses=[SS_97_RC LC_C_UREY] Conns=[delta wye] kVs=[12.47         0.48] kVAs=[1000  1000] %Rs=[0.97        0.97] XHL=5.57 %Noloadloss=0 %imag=0 MaxTap=1.05 MinTap=0.95 NumTaps=4
New Transformer.T_144_MAYER Windings=2 Buses=[SS_70_RC MAYER_480V] Conns=[delta wye] kVs=[12.47         0.48] kVAs=[500  667] %Rs=[1.19        1.19] XHL=5.57 %Noloadloss=0 %imag=0 MaxTap=1.05 MinTap=0.95 NumTaps=4
New Transformer.T_145_BSCI_S3 Windings=2 Buses=[BUS_T_145_PRI BASIC_SCI_SUB3] Conns=[delta wye] kVs=[12.47         0.48] kVAs=[500  500] %Rs=[1.27        1.27] XHL=5.97 %Noloadloss=0 %imag=0 MaxTap=1.05 MinTap=0.95 NumTaps=4
New Transformer.T_146_BSCI_S2 Windings=2 Buses=[BUS_T_146_PRI BASIC_SCI_SUB2] Conns=[delta wye] kVs=[12.47        0.208] kVAs=[1000  1000] %Rs=[1.07        1.07] XHL=6.11 %Noloadloss=0 %imag=0 MaxTap=1.05 MinTap=0.95 NumTaps=4
New Transformer.T_147_BSCI_S1 Windings=2 Buses=[BUS_T_147_PRI BASIC_SCI_SUB1] Conns=[delta wye] kVs=[12.47        0.208] kVAs=[750  750] %Rs=[1.16        1.16] XHL=6.09 %Noloadloss=0 %imag=0 MaxTap=1.05 MinTap=0.95 NumTaps=4
New Transformer.T_148_BSCI_S4 Windings=2 Buses=[BUS_T_148_PRI BASIC_SCI_SUB4] Conns=[delta wye] kVs=[12.47        0.208] kVAs=[1000  1000] %Rs=[1.05        1.05] XHL=6.01 %Noloadloss=0 %imag=0 MaxTap=1.05 MinTap=0.95 NumTaps=4
New Transformer.T_149_B_2B_480V Windings=2 Buses=[SS_55_MC LC1_2B_480V] Conns=[delta wye] kVs=[12.47         0.48] kVAs=[500  666] %Rs=[1.27        1.27] XHL=5.97 %Noloadloss=0 %imag=0 MaxTap=1.05 MinTap=0.95 NumTaps=4
New Transformer.T_150_B_2B_208V Windings=2 Buses=[SS_55_MC T_150_SEC_LC2] Conns=[delta wye] kVs=[12.47        0.208] kVAs=[750  1000] %Rs=[1.16        1.16] XHL=6.09 %Noloadloss=0 %imag=0 MaxTap=1.05 MinTap=0.95 NumTaps=4
New Transformer.T_151_PHYS_ED Windings=2 Buses=[PHYS_ED_PRI PHYS_ED_BLDGS] Conns=[delta wye] kVs=[12.47         0.48] kVAs=[500  500] %Rs=[0.94        0.94] XHL=4.4 %Noloadloss=0 %imag=0 MaxTap=1.05 MinTap=0.95 NumTaps=4
New Transformer.T_152_TA Windings=2 Buses=[BUS_T_152_PRI SWBD_A] Conns=[delta wye] kVs=[12.47         4.16] kVAs=[2500  2800] %Rs=[0.52        0.52] XHL=5.5 %Noloadloss=0 %imag=0 MaxTap=1.05 MinTap=0.95 NumTaps=4
New Transformer.T_154_BONNER_LCB Windings=2 Buses=[SW_T_120 BONNER_LC_B] Conns=[delta wye] kVs=[12.47         0.48] kVAs=[500  500] %Rs=[1.15        1.15] XHL=5.38 %Noloadloss=0 %imag=0 MaxTap=1.05 MinTap=0.95 NumTaps=4
New Transformer.T_155_BONNER_LCA Windings=2 Buses=[SW_T_119 BONNER_LC_A] Conns=[delta wye] kVs=[12.47        0.208] kVAs=[750  750] %Rs=[1.09        1.09] XHL=5.7 %Noloadloss=0 %imag=0 MaxTap=1.05 MinTap=0.95 NumTaps=4
New Transformer.T_156_TES Windings=2 Buses=[BUS_T_156_PRI TES] Conns=[delta wye] kVs=[12.47         0.48] kVAs=[1000  1000] %Rs=[1  1] XHL=5.71 %Noloadloss=0 %imag=0 MaxTap=1.05 MinTap=0.95 NumTaps=4
New Transformer.T_157_BLDG_2D Windings=2 Buses=[SW_T_209/210 BUILDING_2D] Conns=[delta wye] kVs=[12.47         0.48] kVAs=[1000  1000] %Rs=[1  1] XHL=5.71 %Noloadloss=0 %imag=0 MaxTap=1.05 MinTap=0.95 NumTaps=4
New Transformer.T_158_NORPAX Windings=2 Buses=[SS_66_SIO NORPAX] Conns=[delta wye] kVs=[12.47         0.48] kVAs=[1000  1000] %Rs=[1.05        1.05] XHL=6.01 %Noloadloss=0 %imag=0 MaxTap=1.05 MinTap=0.95 NumTaps=4
New Transformer.T_159_P_E Windings=2 Buses=[BUS_T_159_PRI BUS_T_159_SEC] Conns=[delta wye] kVs=[12.47         0.48] kVAs=[300  300] %Rs=[0.82        0.82] XHL=3.4 %Noloadloss=0 %imag=0 MaxTap=1.05 MinTap=0.95 NumTaps=4
New Transformer.T_160_ALEX_SP Windings=2 Buses=[ALEX_SP_PRI ALEX_SPANOS] Conns=[delta wye] kVs=[12.47         0.48] kVAs=[300  300] %Rs=[0.82        0.82] XHL=3.4 %Noloadloss=0 %imag=0 MaxTap=1.05 MinTap=0.95 NumTaps=4
New Transformer.T_162_WAR_COL_2 Windings=2 Buses=[SW_T_162 WARREN_COL_2] Conns=[delta wye] kVs=[12.47        0.208] kVAs=[225  250] %Rs=[0.9         0.9] XHL=3.49 %Noloadloss=0 %imag=0 MaxTap=1.05 MinTap=0.95 NumTaps=4
New Transformer.T_163_WAR_COL_3 Windings=2 Buses=[SW_T_163 WARREN_COL_3] Conns=[delta wye] kVs=[12.47        0.208] kVAs=[225  250] %Rs=[0.82        0.82] XHL=3.2 %Noloadloss=0 %imag=0 MaxTap=1.05 MinTap=0.95 NumTaps=4
New Transformer.T_164_WAR_COL_1 Windings=2 Buses=[WAR_COL_1_PRI WARREN_COL_1] Conns=[delta wye] kVs=[12.47        0.208] kVAs=[150  150] %Rs=[0.81        0.81] XHL=2.89 %Noloadloss=0 %imag=0 MaxTap=1.05 MinTap=0.95 NumTaps=4
New Transformer.T_166 Windings=2 Buses=[SW_T_166 T_287_SEC] Conns=[delta wye] kVs=[12.47        0.208] kVAs=[75  75] %Rs=[0.88        0.88] XHL=2.77 %Noloadloss=0 %imag=0 MaxTap=1.05 MinTap=0.95 NumTaps=4
New Transformer.T_167_MATH Windings=2 Buses=[SW_T_167 MATHEWS_S167] Conns=[delta wye] kVs=[12.47        0.208] kVAs=[75  75] %Rs=[1.08        1.08] XHL=3.23 %Noloadloss=0 %imag=0 MaxTap=1.05 MinTap=0.95 NumTaps=4
New Transformer.T_168_MATH Windings=2 Buses=[SW_T_168 MATHEWS_S168] Conns=[delta wye] kVs=[12.47        0.208] kVAs=[500  500] %Rs=[1.52        1.52] XHL=4.55 %Noloadloss=0 %imag=0 MaxTap=1.05 MinTap=0.95 NumTaps=4
New Transformer.T_169_P_CYN Windings=2 Buses=[SW_T_169 PEP_CYN_S169] Conns=[delta wye] kVs=[12.47        0.208] kVAs=[75  75] %Rs=[1.08        1.08] XHL=3.23 %Noloadloss=0 %imag=0 MaxTap=1.05 MinTap=0.95 NumTaps=4
New Transformer.T_170_INAT_HOUSE Windings=2 Buses=[SW_T_170 INAT_HOUSE] Conns=[delta wye] kVs=[12.47        0.208] kVAs=[150  150] %Rs=[0.92        0.92] XHL=2.76 %Noloadloss=0 %imag=0 MaxTap=1.05 MinTap=0.95 NumTaps=4
New Transformer.T_171_C_SERVICE Windings=2 Buses=[C_SERVICE_PRI T_171_SEC] Conns=[delta wye] kVs=[12.47         0.48] kVAs=[1500  1500] %Rs=[0.9         0.9] XHL=5.91 %Noloadloss=0 %imag=0 MaxTap=1.05 MinTap=0.95 NumTaps=4
New Transformer.T_172_GRN_HSE Windings=2 Buses=[SS_22_WC GREENHOUSE] Conns=[delta wye] kVs=[12.47        0.208] kVAs=[300  300] %Rs=[1.49        1.49] XHL=4.48 %Noloadloss=0 %imag=0 MaxTap=1.05 MinTap=0.95 NumTaps=4
New Transformer.T_173_IOF Windings=2 Buses=[IOF_PRI INST_OF_AMER] Conns=[delta wye] kVs=[12.47        0.208] kVAs=[150  150] %Rs=[1.02        1.02] XHL=4.24 %Noloadloss=0 %imag=0 MaxTap=1.05 MinTap=0.95 NumTaps=4
New Transformer.T_174_IRPS Windings=2 Buses=[IRPS_PRI IRPS] Conns=[delta wye] kVs=[12.47         0.48] kVAs=[300  300] %Rs=[0.89        0.89] XHL=3.69 %Noloadloss=0 %imag=0 MaxTap=1.05 MinTap=0.95 NumTaps=4
New Transformer.T_178_3RD_C Windings=2 Buses=[3RD_C_S166_PRI 3RD_C_RES] Conns=[delta wye] kVs=[12.47        0.208] kVAs=[500  500] %Rs=[0.81        0.81] XHL=3.81 %Noloadloss=0 %imag=0 MaxTap=1.05 MinTap=0.95 NumTaps=4
New Transformer.T_179_O_VIEW Windings=2 Buses=[BUS_T_179_PRI T_179_OCEANVIEW_SEC] Conns=[delta wye] kVs=[12.47        0.208] kVAs=[75  75] %Rs=[1.02        1.02] XHL=3.22 %Noloadloss=0 %imag=0 MaxTap=1.05 MinTap=0.95 NumTaps=4
New Transformer.T_18_MUIR_APTS Windings=2 Buses=[SS_62_MC MUIR_APTS] Conns=[delta wye] kVs=[12.47        0.208] kVAs=[750  1000] %Rs=[1.14        1.14] XHL=5.99 %Noloadloss=0 %imag=0 MaxTap=1.05 MinTap=0.95 NumTaps=4
New Transformer.T_180_BSCI_S5 Windings=2 Buses=[BUS_T_180_PRI BASIC_SCI_SUB5] Conns=[delta wye] kVs=[12.47         0.48] kVAs=[1000  1000] %Rs=[0.78        0.78] XHL=5.72 %Noloadloss=0 %imag=0 MaxTap=1.05 MinTap=0.95 NumTaps=4
New Transformer.T_181_BSCI_S7 Windings=2 Buses=[BUS_T_181_PRI BASIC_SCI_SUB7] Conns=[delta wye] kVs=[12.47        0.208] kVAs=[1000  1333] %Rs=[0.96        0.96] XHL=5.47 %Noloadloss=0 %imag=0 MaxTap=1.05 MinTap=0.95 NumTaps=4
New Transformer.T_182_C_LIB Windings=2 Buses=[SW_T_010/011 CEN_LIB_S182] Conns=[delta wye] kVs=[12.47         0.48] kVAs=[750  750] %Rs=[1.01        1.01] XHL=5.3 %Noloadloss=0 %imag=0 MaxTap=1.05 MinTap=0.95 NumTaps=4
New Transformer.T_183_C_LIB Windings=2 Buses=[SW_T_008/009 CEN_LIB_S183] Conns=[delta wye] kVs=[12.47         0.48] kVAs=[750  750] %Rs=[1.01        1.01] XHL=5.3 %Noloadloss=0 %imag=0 MaxTap=1.05 MinTap=0.95 NumTaps=4
New Transformer.T_184_C_LIB Windings=2 Buses=[C_LIB_S184_PRI CEN_LIB_S184] Conns=[delta wye] kVs=[12.47         0.48] kVAs=[1500  1500] %Rs=[0.86        0.86] XHL=5.65 %Noloadloss=0 %imag=0 MaxTap=1.05 MinTap=0.95 NumTaps=4
New Transformer.T_186_FORUM_THEATRE Windings=2 Buses=[BUS_T_186_PRI T_186_SEC] Conns=[delta wye] kVs=[12.47         0.48] kVAs=[750  750] %Rs=[1.01        1.01] XHL=5.31 %Noloadloss=0 %imag=0 MaxTap=1.05 MinTap=0.95 NumTaps=4
New Transformer.T_187_MANDELL_W Windings=2 Buses=[MANDEL_W_PRI MANDELL_WEISS] Conns=[delta wye] kVs=[12.47        0.208] kVAs=[750  750] %Rs=[1.08        1.08] XHL=5.65 %Noloadloss=0 %imag=0 MaxTap=1.05 MinTap=0.95 NumTaps=4
New Transformer.T_188_I&R_BLDG Windings=2 Buses=[SW_T_042/043 I&R_BLDG] Conns=[delta wye] kVs=[12.47         0.48] kVAs=[1500  1500] %Rs=[0.74        0.74] XHL=5.95 %Noloadloss=0 %imag=0 MaxTap=1.05 MinTap=0.95 NumTaps=4
New Transformer.T_189_HI_BAY_PH Windings=2 Buses=[HI_BAY_PH_PRI HI_BAY_PHYSICS] Conns=[delta wye] kVs=[12.47         0.48] kVAs=[500  500] %Rs=[0.94        0.94] XHL=4.4 %Noloadloss=0 %imag=0 MaxTap=1.05 MinTap=0.95 NumTaps=4
New Transformer.T_19_TIOGA Windings=2 Buses=[BUS_T_19_PRI TIOGA] Conns=[delta wye] kVs=[12.47        0.208] kVAs=[500  500] %Rs=[1.12        1.12] XHL=5.26 %Noloadloss=0 %imag=0 MaxTap=1.05 MinTap=0.95 NumTaps=4
New Transformer.T_190_SIO_LIBRARY Windings=2 Buses=[SS_26_SIO SIO_LIBRARY] Conns=[delta wye] kVs=[12.47         0.48] kVAs=[750  750] %Rs=[1  1] XHL=5.26 %Noloadloss=0 %imag=0 MaxTap=1.05 MinTap=0.95 NumTaps=4
New Transformer.T_191 Windings=2 Buses=[BUS_T_191_PRI T_191_SEC] Conns=[delta wye] kVs=[4.16        0.48] kVAs=[225  225] %Rs=[1.34        1.34] XHL=5.23 %Noloadloss=0 %imag=0 MaxTap=1.05 MinTap=0.95 NumTaps=4
New Transformer.T_192_MANDEVILLE Windings=2 Buses=[SW_T_219 MANDEVILLE_CTR] Conns=[delta wye] kVs=[12.47         0.48] kVAs=[1500  1500] %Rs=[0.88        0.88] XHL=5.78 %Noloadloss=0 %imag=0 MaxTap=1.05 MinTap=0.95 NumTaps=4
New Transformer.T_193_C_SCI_SUBA Windings=2 Buses=[C_SCI_SUBA_PRI CLIN_SCI_SUB_A] Conns=[delta wye] kVs=[12.47        0.208] kVAs=[1000  1000] %Rs=[1.03        1.03] XHL=5.89 %Noloadloss=0 %imag=0 MaxTap=1.05 MinTap=0.95 NumTaps=4
New Transformer.T_194_C_SCI_SUBB Windings=2 Buses=[C_SCI_SUBB_PRI CLIN_SCI_SUB_B] Conns=[delta wye] kVs=[12.47         0.48] kVAs=[1500  1500] %Rs=[0.9         0.9] XHL=5.91 %Noloadloss=0 %imag=0 MaxTap=1.05 MinTap=0.95 NumTaps=4
New Transformer.T_195_B2C Windings=2 Buses=[BUS_T_195_PRI BLDG_2C_208V] Conns=[delta wye] kVs=[12.47        0.208] kVAs=[1000  1000] %Rs=[1.05        1.05] XHL=6.01 %Noloadloss=0 %imag=0 MaxTap=1.05 MinTap=0.95 NumTaps=4
New Transformer.T_196_B2C Windings=2 Buses=[BUS_T_196_PRI BLDG_2C_480V] Conns=[delta wye] kVs=[12.47         0.48] kVAs=[1000  1000] %Rs=[1.04        1.04] XHL=5.96 %Noloadloss=0 %imag=0 MaxTap=1.05 MinTap=0.95 NumTaps=4
New Transformer.T_197_SUB3 Windings=2 Buses=[BUS_T_197_PRI SUB_3] Conns=[delta wye] kVs=[12.47         0.48] kVAs=[1000  1000] %Rs=[0.96        0.96] XHL=5.47 %Noloadloss=0 %imag=0 MaxTap=1.05 MinTap=0.95 NumTaps=4
New Transformer.T_198_SUB1 Windings=2 Buses=[BUS_T_198_PRI SUB_1] Conns=[delta wye] kVs=[12.47         0.48] kVAs=[2500  2500] %Rs=[0.56        0.56] XHL=5.87 %Noloadloss=0 %imag=0 MaxTap=1.05 MinTap=0.95 NumTaps=4
New Transformer.T_199_SUB2 Windings=2 Buses=[BUS_T_199_PRI SUB_2] Conns=[delta wye] kVs=[12.47         0.48] kVAs=[1000  1000] %Rs=[0.77        0.77] XHL=4.38 %Noloadloss=0 %imag=0 MaxTap=1.05 MinTap=0.95 NumTaps=4
New Transformer.T_20_TENEYA Windings=2 Buses=[BUS_T_20_PRI TENEYA] Conns=[delta wye] kVs=[12.47        0.208] kVAs=[750  750] %Rs=[1.08        1.08] XHL=5.66 %Noloadloss=0 %imag=0 MaxTap=1.05 MinTap=0.95 NumTaps=4
New Transformer.T_200_UREY Windings=2 Buses=[SS_97_RC LC_A_UREY] Conns=[delta delta] kVs=[12.47        0.208] kVAs=[1000  1333] %Rs=[1.04        1.04] XHL=5.95 %Noloadloss=0 %imag=0 MaxTap=1.05 MinTap=0.95 NumTaps=4
New Transformer.T_202_SEAWEED Windings=2 Buses=[SS_64_SIO SEAWEED_CAN] Conns=[delta wye] kVs=[12.47         0.48] kVAs=[500  500] %Rs=[0.56        0.56] XHL=2.64 %Noloadloss=0 %imag=0 MaxTap=1.05 MinTap=0.95 NumTaps=4
New Transformer.T_203_IGPP Windings=2 Buses=[SS_67_SIO IGPP_SUB] Conns=[delta wye] kVs=[12.47         0.48] kVAs=[750  750] %Rs=[1.11        1.11] XHL=5.8 %Noloadloss=0 %imag=0 MaxTap=1.05 MinTap=0.95 NumTaps=4
New Transformer.T_204 Windings=2 Buses=[SDG&E_69KV T_204_SEC] Conns=[delta wye] kVs=[69        12.47] kVAs=[16800  28000] %Rs=[0.36        0.36] XHL=7.55 %Noloadloss=0 %imag=0 MaxTap=1.05 MinTap=0.95 NumTaps=16
New Transformer.T_205 Windings=2 Buses=[SDG&E_69KV T_205_SEC] Conns=[delta wye] kVs=[69        12.47] kVAs=[16800  28000] %Rs=[0.37        0.37] XHL=7.61 %Noloadloss=0 %imag=0 sub=y MaxTap=1.05 MinTap=0.95 NumTaps=16
New Transformer.T_206_3RD_C Windings=2 Buses=[3RD_C_S206PRI 3RD_C_APT_206] Conns=[delta wye] kVs=[12.47        0.208] kVAs=[150  150] %Rs=[0.97        0.97] XHL=3.47 %Noloadloss=0 %imag=0 MaxTap=1.05 MinTap=0.95 NumTaps=4
New Transformer.T_207_3RD_C Windings=2 Buses=[T_207_PRI T_207_SEC] Conns=[delta wye] kVs=[12.47        0.208] kVAs=[300  300] %Rs=[0.93        0.93] XHL=3.88 %Noloadloss=0 %imag=0 MaxTap=1.05 MinTap=0.95 NumTaps=4
New Transformer.T_209_CPA Windings=2 Buses=[T_053 US_CPA] Conns=[delta wye] kVs=[12.47         0.48] kVAs=[2500  3333] %Rs=[0.78        0.78] XHL=6.25 %Noloadloss=0 %imag=0 MaxTap=1.05 MinTap=0.95 NumTaps=4
New Transformer.T_210_HW Windings=2 Buses=[T_051 US_HW] Conns=[delta wye] kVs=[12.47         0.48] kVAs=[1500  2000] %Rs=[0.89        0.89] XHL=6.2 %Noloadloss=0 %imag=0 MaxTap=1.05 MinTap=0.95 NumTaps=4
New Transformer.T_211_HE Windings=2 Buses=[T_049 US_HE] Conns=[delta wye] kVs=[12.47         0.48] kVAs=[1500  2000] %Rs=[0.89        0.89] XHL=6.21 %Noloadloss=0 %imag=0 MaxTap=1.05 MinTap=0.95 NumTaps=4
New Transformer.T_212_PAC_HALL_T2 Windings=2 Buses=[SW_T_057/058 PACIFIC_H_T2] Conns=[delta wye] kVs=[12.47        0.208] kVAs=[1000  1333] %Rs=[1.07        1.07] XHL=6.11 %Noloadloss=0 %imag=0 MaxTap=1.05 MinTap=0.95 NumTaps=4
New Transformer.T_213_PAC_HALL_T1 Windings=2 Buses=[SW_T_055/056 PACIFIC_H_T1] Conns=[delta wye] kVs=[12.47        0.208] kVAs=[1000  1333] %Rs=[1.03        1.03] XHL=5.91 %Noloadloss=0 %imag=0 MaxTap=1.05 MinTap=0.95 NumTaps=4
New Transformer.T_214_PAC_HALL_T3 Windings=2 Buses=[SW_T_059/060 PACIFIC_H_T3] Conns=[delta wye] kVs=[12.47         0.48] kVAs=[2500  3333] %Rs=[0.59        0.59] XHL=6.17 %Noloadloss=0 %imag=0 MaxTap=1.05 MinTap=0.95 NumTaps=4
New Transformer.T_215_CV_CAF Windings=2 Buses=[SW_T_061/062 CANYON_VIEW] Conns=[delta wye] kVs=[12.47         0.48] kVAs=[1500  2000] %Rs=[0.96        0.96] XHL=6.69 %Noloadloss=0 %imag=0 MaxTap=1.05 MinTap=0.95 NumTaps=4
New Transformer.T_216_VISUAL_A Windings=2 Buses=[SS_110_VIS_A VISUAL_ARTS] Conns=[delta wye] kVs=[12.47         0.48] kVAs=[1500  1500] %Rs=[0.88        0.88] XHL=5.76 %Noloadloss=0 %imag=0 MaxTap=1.05 MinTap=0.95 NumTaps=4
New Transformer.T_217_S_EBU2 Windings=2 Buses=[S_EBU2_PRI S_EBU2] Conns=[delta wye] kVs=[12.47         0.48] kVAs=[2000  2667] %Rs=[0.74        0.74] XHL=5.94 %Noloadloss=0 %imag=0 MaxTap=1.05 MinTap=0.95 NumTaps=4
New Transformer.T_218_N_EBU2 Windings=2 Buses=[SW_T_069/070 US_N_EBU2] Conns=[delta wye] kVs=[12.47         0.48] kVAs=[2000  2667] %Rs=[0.81        0.81] XHL=5.89 %Noloadloss=0 %imag=0 MaxTap=1.05 MinTap=0.95 NumTaps=4
New Transformer.T_219_RIMAC_US_1W Windings=2 Buses=[SW_T_071/072 US_2_RIMAC] Conns=[delta wye] kVs=[12.47         0.48] kVAs=[1500  1500] %Rs=[0.89        0.89] XHL=5.8 %Noloadloss=0 %imag=0 MaxTap=1.05 MinTap=0.95 NumTaps=4
New Transformer.T_220_RIMAC_US_1E Windings=2 Buses=[SW_T_073/074 US_1_RIMAC] Conns=[delta wye] kVs=[12.47         0.48] kVAs=[1500  1500] %Rs=[0.82        0.82] XHL=5.39 %Noloadloss=0 %imag=0 MaxTap=1.05 MinTap=0.95 NumTaps=4
New Transformer.T_221_EBU2_LAB Windings=2 Buses=[EBU2_LAB_PRI EBU2_LAB] Conns=[delta wye] kVs=[12.47         0.48] kVAs=[2500  3500] %Rs=[0.72        0.72] XHL=5.77 %Noloadloss=0 %imag=0 MaxTap=1.05 MinTap=0.95 NumTaps=4
New Transformer.T_222_IGPP_II Windings=2 Buses=[SS_27_SIO IGPP2] Conns=[delta wye] kVs=[12.47        0.208] kVAs=[750  750] %Rs=[1.06        1.06] XHL=5.56 %Noloadloss=0 %imag=0 MaxTap=1.05 MinTap=0.95 NumTaps=4
New Transformer.T_223_BIRCH_AQ Windings=2 Buses=[BUS_T_223_PRI BIRCH_AQUARIUM] Conns=[delta wye] kVs=[12.47         0.48] kVAs=[750  1000] %Rs=[1.09        1.09] XHL=5.7 %Noloadloss=0 %imag=0 MaxTap=1.05 MinTap=0.95 NumTaps=4
New Transformer.T_224_SVERDRUP_US1 Windings=2 Buses=[SVERD_US1_PRI SVERDRUP_US1] Conns=[delta wye] kVs=[12.47        0.208] kVAs=[750  1000] %Rs=[1.05        1.05] XHL=5.5 %Noloadloss=0 %imag=0 MaxTap=1.05 MinTap=0.95 NumTaps=4
New Transformer.T_225_SVERDRUP_US2 Windings=2 Buses=[SVERD_US2_PRI SVERDRUP_US2] Conns=[delta wye] kVs=[12.47        0.208] kVAs=[750  1000] %Rs=[1.05        1.05] XHL=5.5 %Noloadloss=0 %imag=0 MaxTap=1.05 MinTap=0.95 NumTaps=4
New Transformer.T_227_E_CMM Windings=2 Buses=[SW_T_227 EAST_CMM_S227] Conns=[delta wye] kVs=[12.47         0.48] kVAs=[2000  2667] %Rs=[0.82        0.82] XHL=5.98 %Noloadloss=0 %imag=0 MaxTap=1.05 MinTap=0.95 NumTaps=4
New Transformer.T_228_E_CMM Windings=2 Buses=[SW_T_228 EAST_CMM_S228] Conns=[delta wye] kVs=[12.47         0.48] kVAs=[1500  2000] %Rs=[0.89        0.89] XHL=5.84 %Noloadloss=0 %imag=0 MaxTap=1.05 MinTap=0.95 NumTaps=4
New Transformer.T_229_IOF_PH2 Windings=2 Buses=[BUS_T_229_PRI IN_OF_AMER_P2] Conns=[delta wye] kVs=[12.47        0.208] kVAs=[300  300] %Rs=[0.96        0.96] XHL=3.99 %Noloadloss=0 %imag=0 MaxTap=1.05 MinTap=0.95 NumTaps=4
New Transformer.T_230_CT_5&6 Windings=2 Buses=[BUS_T_230_PRI T_230_SEC] Conns=[delta wye] kVs=[12.47         0.48] kVAs=[2000  2240] %Rs=[0.76        0.76] XHL=5.57 %Noloadloss=0 %imag=0 MaxTap=1.05 MinTap=0.95 NumTaps=4
New Transformer.T_231_CT_3&4 Windings=2 Buses=[SW_T_087 T_231_SEC] Conns=[delta wye] kVs=[12.47         0.48] kVAs=[1500  1500] %Rs=[0.86        0.86] XHL=5.63 %Noloadloss=0 %imag=0 MaxTap=1.05 MinTap=0.95 NumTaps=4
New Transformer.T_233_US_8 Windings=2 Buses=[BUS_T_233_PRI US8] Conns=[delta wye] kVs=[12.47         4.16] kVAs=[2500  2800] %Rs=[0.53        0.53] XHL=5.53 %Noloadloss=0 %imag=0 MaxTap=1.05 MinTap=0.95 NumTaps=4
New Transformer.T_234_US_TD Windings=2 Buses=[BUS_T_234_PRI DB_CP] Conns=[delta wye] kVs=[12.47         4.16] kVAs=[2500  2500] %Rs=[0.51        0.51] XHL=5.38 %Noloadloss=0 %imag=0 MaxTap=1.05 MinTap=0.95 NumTaps=4
New Transformer.T_236_TB Windings=2 Buses=[BUS_T_236_PRI TB_SEC] Conns=[delta wye] kVs=[12.47         0.48] kVAs=[1000  1000] %Rs=[0.86        0.86] XHL=4.93 %Noloadloss=0 %imag=0 MaxTap=1.05 MinTap=0.95 NumTaps=4
New Transformer.T_238_CENT_HALL Windings=2 Buses=[BUS_T_238_PRI CENT_HALL] Conns=[delta wye] kVs=[12.47         0.48] kVAs=[750  750] %Rs=[1.05        1.05] XHL=5.51 %Noloadloss=0 %imag=0 MaxTap=1.05 MinTap=0.95 NumTaps=4
New Transformer.T_239_CAREER_SERV Windings=2 Buses=[BUS_T_239_PRI MDP] Conns=[delta wye] kVs=[12.47        0.208] kVAs=[225  225] %Rs=[0.94        0.94] XHL=3.68 %Noloadloss=0 %imag=0 MaxTap=1.05 MinTap=0.95 NumTaps=4
New Transformer.T_240_SOCIAL_SCI Windings=2 Buses=[SW_T_092 US_SS] Conns=[delta wye] kVs=[12.47         0.48] kVAs=[750  1000] %Rs=[1.12        1.12] XHL=5.89 %Noloadloss=0 %imag=0 MaxTap=1.05 MinTap=0.95 NumTaps=4
New Transformer.T_241_MAT_HAND Windings=2 Buses=[M_HAND_PRI MAT_HANDLING] Conns=[delta wye] kVs=[12.47         0.48] kVAs=[750  750] %Rs=[1.13        1.13] XHL=5.64 %Noloadloss=0 %imag=0 MaxTap=1.05 MinTap=0.95 NumTaps=4
New Transformer.T_242_ATHL_FIELD Windings=2 Buses=[T_242_PRI ATHLETIC_FIELD] Conns=[delta wye] kVs=[12.47         0.48] kVAs=[750  750] %Rs=[1  1] XHL=5.24 %Noloadloss=0 %imag=0 MaxTap=1.05 MinTap=0.95 NumTaps=4
New Transformer.T_244_CT_3&4 Windings=2 Buses=[T_244_PRI T_244_SEC] Conns=[delta wye] kVs=[4.16        0.48] kVAs=[1000  1120] %Rs=[0.95        0.95] XHL=5.43 %Noloadloss=0 %imag=0 MaxTap=1.05 MinTap=0.95 NumTaps=4
New Transformer.T_246_SERF_BLDG Windings=2 Buses=[SERF_BLDG_PRI SERF_BLDG] Conns=[delta wye] kVs=[12.47         0.48] kVAs=[2000  2667] %Rs=[0.76        0.76] XHL=6.1 %Noloadloss=0 %imag=0 MaxTap=1.05 MinTap=0.95 NumTaps=4
New Transformer.T_247_BONNER_LCC Windings=2 Buses=[SW_T_121_1 BONNER_LC_C] Conns=[delta wye] kVs=[12.47        0.208] kVAs=[1000  1000] %Rs=[1.06        1.06] XHL=6.08 %Noloadloss=0 %imag=0 MaxTap=1.05 MinTap=0.95 NumTaps=4
New Transformer.T_248 Windings=2 Buses=[BUS_T_248_PRI COAST_APT_2] Conns=[delta wye] kVs=[12.47         0.24] kVAs=[167  167] %Rs=[0.47        0.47] XHL=1.74 %Noloadloss=0 %imag=0 MaxTap=1.05 MinTap=0.95 NumTaps=4
New Transformer.T_249 Windings=2 Buses=[BUS_T_249_PRI T_249_SEC] Conns=[delta wye] kVs=[12.47         0.24] kVAs=[167  167] %Rs=[0.87        0.87] XHL=3.18 %Noloadloss=0 %imag=0 MaxTap=1.05 MinTap=0.95 NumTaps=4
New Transformer.T_250 Windings=2 Buses=[TERM_CABINET COAST_APT] Conns=[delta wye] kVs=[12.47         0.24] kVAs=[167  167] %Rs=[0.4         0.4] XHL=1.45 %Noloadloss=0 %imag=0 MaxTap=1.05 MinTap=0.95 NumTaps=4
New Transformer.T_251_BSCI_S6 Windings=2 Buses=[BUS_T_251_PRI BASIC_SCI_SUB6] Conns=[delta wye] kVs=[12.47        0.208] kVAs=[1000  1333] %Rs=[0.95        0.95] XHL=5.41 %Noloadloss=0 %imag=0 MaxTap=1.05 MinTap=0.95 NumTaps=4
New Transformer.T_252_MARSH_SUB1 Windings=2 Buses=[BUS_T_252_PRI MARSHALL_SUB1] Conns=[delta wye] kVs=[12.47        0.208] kVAs=[500  500] %Rs=[1.17        1.17] XHL=5.48 %Noloadloss=0 %imag=0 MaxTap=1.05 MinTap=0.95 NumTaps=4
New Transformer.T_253_CR_UNION Windings=2 Buses=[T_253_PRI CREDIT_UNION] Conns=[delta wye] kVs=[12.47        0.208] kVAs=[150  150] %Rs=[1.23        1.23] XHL=5.77 %Noloadloss=0 %imag=0 MaxTap=1.05 MinTap=0.95 NumTaps=4
New Transformer.T_255_IMG Windings=2 Buses=[SS_11_SOM IMG] Conns=[delta wye] kVs=[12.47         0.48] kVAs=[750  840] %Rs=[1  1] XHL=5.25 %Noloadloss=0 %imag=0 MaxTap=1.05 MinTap=0.95 NumTaps=4
New Transformer.T_256_SCHOL_HAL Windings=2 Buses=[T_256_PRI SCHOLANDER_HAL] Conns=[delta wye] kVs=[12.47        0.208] kVAs=[300  300] %Rs=[0.36        0.36] XHL=1.48 %Noloadloss=0 %imag=0 MaxTap=1.05 MinTap=0.95 NumTaps=4
New Transformer.T_257_DANCE_STUDIO Windings=2 Buses=[BUS_T_257_PRI DANCE_STUDIO] Conns=[delta wye] kVs=[12.47        0.208] kVAs=[300  300] %Rs=[0.76        0.76] XHL=3.15 %Noloadloss=0 %imag=0 MaxTap=1.05 MinTap=0.95 NumTaps=4
New Transformer.T_258_CELL_SITE Windings=2 Buses=[BUS_T_258_PRI CELL_SITE] Conns=[delta wye] kVs=[12.47         0.48] kVAs=[225  252] %Rs=[0.85        0.85] XHL=3.29 %Noloadloss=0 %imag=0 MaxTap=1.05 MinTap=0.95 NumTaps=4
New Transformer.T_259 Windings=2 Buses=[BUS_T_259_PRI T_259_SEC] Conns=[delta wye] kVs=[4.16       0.208] kVAs=[150  150] %Rs=[1.06        1.06] XHL=3.8 %Noloadloss=0 %imag=0 MaxTap=1.05 MinTap=0.95 NumTaps=4
New Transformer.T_260 Windings=2 Buses=[BUS_T_260_PRI ED4] Conns=[delta wye] kVs=[4.16       0.208] kVAs=[225  225] %Rs=[1.27        1.27] XHL=4.96 %Noloadloss=0 %imag=0 MaxTap=1.05 MinTap=0.95 NumTaps=4
New Transformer.T_264_ENDUR_SUB1 Windings=2 Buses=[BUS_T_264_PRI USR1] Conns=[delta wye] kVs=[12.47         0.48] kVAs=[1500  1500] %Rs=[0.9         0.9] XHL=5.89 %Noloadloss=0 %imag=0 MaxTap=1.05 MinTap=0.95 NumTaps=4
New Transformer.T_265_ENDUR_SUB2 Windings=2 Buses=[BUS_T_265_PRI USR2] Conns=[delta wye] kVs=[12.47         0.48] kVAs=[500  500] %Rs=[1.22        1.22] XHL=5.73 %Noloadloss=0 %imag=0 MaxTap=1.05 MinTap=0.95 NumTaps=4
New Transformer.T_267_OARF Windings=2 Buses=[BUS_T_267_PRI OARF] Conns=[delta wye] kVs=[12.47         0.48] kVAs=[1500  1500] %Rs=[0.86        0.86] XHL=5.64 %Noloadloss=0 %imag=0 MaxTap=1.05 MinTap=0.95 NumTaps=4
New Transformer.T_268_GALBRAITH Windings=2 Buses=[SW_T_095 GALBRAITH_HALL] Conns=[delta wye] kVs=[12.47         0.48] kVAs=[1500  2000] %Rs=[0.85        0.85] XHL=5.56 %Noloadloss=0 %imag=0 MaxTap=1.05 MinTap=0.95 NumTaps=4
New Transformer.T_269_ERC Windings=2 Buses=[T_269_PRI ERC] Conns=[delta wye] kVs=[12.47          2.4] kVAs=[500  500] %Rs=[1.15        1.15] XHL=5.38 %Noloadloss=0 %imag=0 MaxTap=1.05 MinTap=0.95 NumTaps=4
New Transformer.T_270_REGENTS Windings=2 Buses=[T_270_PRI T_270_SEC] Conns=[delta wye] kVs=[12.47         0.48] kVAs=[75  75] %Rs=[1.26        1.26] XHL=3.79 %Noloadloss=0 %imag=0 MaxTap=1.05 MinTap=0.95 NumTaps=4
New Transformer.T_271_OLD_R_HALL Windings=2 Buses=[BUS_T_271_PRI OLD_RITTER_HAL] Conns=[delta wye] kVs=[12.47         0.48] kVAs=[750  750] %Rs=[1.05        1.05] XHL=5.5 %Noloadloss=0 %imag=0 MaxTap=1.05 MinTap=0.95 NumTaps=4
New Transformer.T_272_MAAC_BLDG Windings=2 Buses=[T_272_PRI MAAC_BLDGS] Conns=[delta wye] kVs=[12.47        0.208] kVAs=[1000  1000] %Rs=[1  1] XHL=5.71 %Noloadloss=0 %imag=0 MaxTap=1.05 MinTap=0.95 NumTaps=4
New Transformer.T_273_MAYER Windings=2 Buses=[SS_70_RC MAYER_208V] Conns=[delta wye] kVs=[12.47        0.208] kVAs=[1000  1333] %Rs=[0.92        0.92] XHL=5.25 %Noloadloss=0 %imag=0 MaxTap=1.05 MinTap=0.95 NumTaps=4
New Transformer.T_274_YORK Windings=2 Buses=[BUS_T_274_PRI T_274_SEC] Conns=[delta wye] kVs=[4.16        0.48] kVAs=[300  300] %Rs=[1.19        1.19] XHL=4.96 %Noloadloss=0 %imag=0 MaxTap=1.05 MinTap=0.95 NumTaps=4
New Transformer.T_275_MAYER Windings=2 Buses=[BUS_T_275_PRI T_275_SEC] Conns=[delta wye] kVs=[4.16        0.48] kVAs=[225  225] %Rs=[1.19        1.19] XHL=5.57 %Noloadloss=0 %imag=0 MaxTap=1.05 MinTap=0.95 NumTaps=4
New Transformer.T_276_BONNER Windings=2 Buses=[BUS_T_276_PRI DB_EM] Conns=[delta wye] kVs=[4.16        0.48] kVAs=[500  500] %Rs=[1.11        1.11] XHL=5.2 %Noloadloss=0 %imag=0 MaxTap=1.05 MinTap=0.95 NumTaps=4
New Transformer.T_277 Windings=2 Buses=[SDG&E_69KV T_277_SEC] Conns=[delta wye] kVs=[69        12.47] kVAs=[16800  28000] %Rs=[0.36        0.36] XHL=7.43 %Noloadloss=0 %imag=0 MaxTap=1.05 MinTap=0.95 NumTaps=16
New Transformer.T_278_YORK_SUB2 Windings=2 Buses=[SW_YORK_SUB2 DBN] Conns=[delta wye] kVs=[12.47        0.208] kVAs=[1000  1000] %Rs=[1.06        1.06] XHL=6.03 %Noloadloss=0 %imag=0 MaxTap=1.05 MinTap=0.95 NumTaps=4
New Transformer.T_279_YORK_SUB3 Windings=2 Buses=[SW_YORK_SUB_3 DBN_1] Conns=[delta wye] kVs=[12.47         0.48] kVAs=[500  500] %Rs=[1.11        1.11] XHL=5.2 %Noloadloss=0 %imag=0 MaxTap=1.05 MinTap=0.95 NumTaps=4
New Transformer.T_280_YORK_SUB1 Windings=2 Buses=[SW_YORK_SUB1 DBS] Conns=[delta wye] kVs=[12.47        0.208] kVAs=[750  750] %Rs=[1.07        1.07] XHL=5.6 %Noloadloss=0 %imag=0 MaxTap=1.05 MinTap=0.95 NumTaps=4
New Transformer.T_281_GILMAN Windings=2 Buses=[T_281_PRI GILMAN_PARKING] Conns=[delta wye] kVs=[12.47         0.48] kVAs=[750  840] %Rs=[1.09        1.09] XHL=5.7 %Noloadloss=0 %imag=0 MaxTap=1.05 MinTap=0.95 NumTaps=4
New Transformer.T_282_SCRIPPS Windings=2 Buses=[SS_52_SIO SCRIPPS_BLDG] Conns=[delta wye] kVs=[12.47        0.208] kVAs=[300  300] %Rs=[0.94        0.94] XHL=3.91 %Noloadloss=0 %imag=0 MaxTap=1.05 MinTap=0.95 NumTaps=4
New Transformer.T_283_PREUSS Windings=2 Buses=[BUS_T_287_PRI PREUSS_SCHOOL] Conns=[delta wye] kVs=[12.47         0.48] kVAs=[1000  1000] %Rs=[1.03        1.03] XHL=5.86 %Noloadloss=0 %imag=0 MaxTap=1.05 MinTap=0.95 NumTaps=4
New Transformer.T_284_NC_PARKING Windings=2 Buses=[BUS_T_284_PRI NC_PARKING_480] Conns=[delta wye] kVs=[12.47         0.48] kVAs=[500  500] %Rs=[1.33        1.33] XHL=6.26 %Noloadloss=0 %imag=0 MaxTap=1.05 MinTap=0.95 NumTaps=4
New Transformer.T_288_BS Windings=2 Buses=[T_288_PRI SUB_BS] Conns=[delta wye] kVs=[4.16        0.48] kVAs=[2000  2300] %Rs=[0.75        0.75] XHL=5.48 %Noloadloss=0 %imag=0 MaxTap=1.05 MinTap=0.95 NumTaps=4
New Transformer.T_289_BLDG_3E Windings=2 Buses=[SS_53_TMC ECON_3E] Conns=[delta wye] kVs=[12.47         0.48] kVAs=[500  500] %Rs=[0.79        0.79] XHL=3.72 %Noloadloss=0 %imag=0 MaxTap=1.05 MinTap=0.95 NumTaps=4
New Transformer.T_290_STUD Windings=2 Buses=[BUS_T_290_PRI STUDENT_T224] Conns=[delta wye] kVs=[12.47        0.208] kVAs=[500  500] %Rs=[0.95        0.95] XHL=4.47 %Noloadloss=0 %imag=0 MaxTap=1.05 MinTap=0.95 NumTaps=4
New Transformer.T_291_BRAIN_IMAG Windings=2 Buses=[PRI_BIO_MED_1 BRAIN_IMG_SEC] Conns=[delta wye] kVs=[12.47         0.48] kVAs=[750  1000] %Rs=[1.11        1.11] XHL=5.81 %Noloadloss=0 %imag=0 MaxTap=1.05 MinTap=0.95 NumTaps=4
New Transformer.T_292_UNEX Windings=2 Buses=[BUS_T_292_PRI UNEX_MSB] Conns=[delta wye] kVs=[12.47        0.208] kVAs=[750  750] %Rs=[1.01        1.01] XHL=5.3 %Noloadloss=0 %imag=0 MaxTap=1.05 MinTap=0.95 NumTaps=4
New Transformer.T_293_SS_BA Windings=2 Buses=[BUS_T_293_PRI SS_BA] Conns=[delta wye] kVs=[12.47         0.48] kVAs=[1000  1333] %Rs=[1  1] XHL=5.68 %Noloadloss=0 %imag=0 MaxTap=1.05 MinTap=0.95 NumTaps=4
New Transformer.T_294_SS_BB Windings=2 Buses=[BUS_T_294_PRI SS_BB] Conns=[delta wye] kVs=[12.47         0.48] kVAs=[1000  1333] %Rs=[1  1] XHL=5.73 %Noloadloss=0 %imag=0 MaxTap=1.05 MinTap=0.95 NumTaps=4
New Transformer.T_295_SS_BC Windings=2 Buses=[BUS_T_295_PRI SS_BC] Conns=[delta wye] kVs=[12.47         0.48] kVAs=[1500  2000] %Rs=[0.91        0.91] XHL=5.95 %Noloadloss=0 %imag=0 MaxTap=1.05 MinTap=0.95 NumTaps=4
New Transformer.T_296_MATTH_SUB Windings=2 Buses=[SS_85_MATTH_SUB MATTHEWS_SUB] Conns=[delta wye] kVs=[12.47         0.48] kVAs=[750  750] %Rs=[1.09        1.09] XHL=5.71 %Noloadloss=0 %imag=0 MaxTap=1.05 MinTap=0.95 NumTaps=4
New Transformer.T_297_EBU_3A Windings=2 Buses=[SW_T_297 EBU_3A_SSB] Conns=[delta wye] kVs=[12.47         0.48] kVAs=[1500  2000] %Rs=[0.87        0.87] XHL=5.69 %Noloadloss=0 %imag=0 MaxTap=1.05 MinTap=0.95 NumTaps=4
New Transformer.T_298_EBU_3A Windings=2 Buses=[SW_T_298 EBU_3A1_SSA] Conns=[delta wye] kVs=[12.47         0.48] kVAs=[1500  2000] %Rs=[0.87        0.87] XHL=5.7 %Noloadloss=0 %imag=0 MaxTap=1.05 MinTap=0.95 NumTaps=4
New Transformer.T_299_ERC Windings=2 Buses=[BUS_T_299_PRI T_299_SEC] Conns=[delta wye] kVs=[12.47         0.48] kVAs=[1000  1120] %Rs=[0.98        0.98] XHL=5.61 %Noloadloss=0 %imag=0 MaxTap=1.05 MinTap=0.95 NumTaps=4
New Transformer.T_300_HD_3 Windings=2 Buses=[BUS_T_300_PRI HD_3] Conns=[delta wye] kVs=[12.47         0.48] kVAs=[1500  1680] %Rs=[0.86        0.86] XHL=5.63 %Noloadloss=0 %imag=0 MaxTap=1.05 MinTap=0.95 NumTaps=4
New Transformer.T_301_HD_1 Windings=2 Buses=[BUS_T_301_PRI HD_1] Conns=[delta wye] kVs=[12.47         0.48] kVAs=[1000  1120] %Rs=[1.01        1.01] XHL=5.78 %Noloadloss=0 %imag=0 MaxTap=1.05 MinTap=0.95 NumTaps=4
New Transformer.T_302_HD_2 Windings=2 Buses=[BUS_T_302_PRI HD_2] Conns=[delta wye] kVs=[12.47         0.48] kVAs=[1000  1120] %Rs=[1.03        1.03] XHL=5.91 %Noloadloss=0 %imag=0 MaxTap=1.05 MinTap=0.95 NumTaps=4
New Transformer.T_303_BALLOON Windings=2 Buses=[BUS_T_303_PRI BALLON_BLDG] Conns=[delta wye] kVs=[12.47         0.48] kVAs=[300  300] %Rs=[1.35        1.35] XHL=5.61 %Noloadloss=0 %imag=0 MaxTap=1.05 MinTap=0.95 NumTaps=4
New Transformer.T_304_EC_PS Windings=2 Buses=[BUS_PD_T_304 BUS_T_304_EC_PS_SEC] Conns=[delta wye] kVs=[12.47         0.48] kVAs=[500  500] %Rs=[0.45        0.45] XHL=2.12 %Noloadloss=0 %imag=0 MaxTap=1.05 MinTap=0.95 NumTaps=4
New Transformer.T_305 Windings=2 Buses=[T_305_PRI EC_OFFICE_BLDG] Conns=[delta wye] kVs=[12.47         0.48] kVAs=[1000  1000] %Rs=[0.99        0.99] XHL=5.66 %Noloadloss=0 %imag=0 MaxTap=1.05 MinTap=0.95 NumTaps=4
New Transformer.T_306_SHILEY Windings=2 Buses=[PRI_T_306_SHILEY SHILEY_EYE_CTR] Conns=[delta wye] kVs=[12.47         0.48] kVAs=[1000  1150] %Rs=[1.01        1.01] XHL=5.77 %Noloadloss=0 %imag=0 MaxTap=1.05 MinTap=0.95 NumTaps=4
New Transformer.T_307_USNL_B Windings=2 Buses=[T_307_PRI USNLB_CC] Conns=[delta wye] kVs=[12.47         0.48] kVAs=[2000  3000] %Rs=[0.74        0.74] XHL=5.41 %Noloadloss=0 %imag=0 MaxTap=1.05 MinTap=0.95 NumTaps=4
New Transformer.T_308_USNL_A Windings=2 Buses=[T_308_PRI USNLA_CC] Conns=[delta wye] kVs=[12.47         0.48] kVAs=[2000  3000] %Rs=[0.75        0.75] XHL=5.44 %Noloadloss=0 %imag=0 MaxTap=1.05 MinTap=0.95 NumTaps=4
New Transformer.T_309_SHILEY Windings=2 Buses=[PRI_T_309_SHILEY SHILEY_US_EM] Conns=[delta wye] kVs=[12.47         0.48] kVAs=[300  300] %Rs=[1.15        1.15] XHL=4.78 %Noloadloss=0 %imag=0 MaxTap=1.05 MinTap=0.95 NumTaps=4
New Transformer.T_310_USEM_A Windings=2 Buses=[PRI_T_USEM_A USEM_A_CC] Conns=[delta wye] kVs=[12.47         0.48] kVAs=[1000  1500] %Rs=[0.89        0.89] XHL=5.08 %Noloadloss=0 %imag=0 MaxTap=1.05 MinTap=0.95 NumTaps=4
New Transformer.T_311_USEM_B Windings=2 Buses=[PRI_T_USEM_B USEM_B_CC] Conns=[delta wye] kVs=[12.47         0.48] kVAs=[1000  1500] %Rs=[0.9         0.9] XHL=5.11 %Noloadloss=0 %imag=0 MaxTap=1.05 MinTap=0.95 NumTaps=4
New Transformer.T_313_LIECHTAG Windings=2 Buses=[BUS_T_313_PRI T_313_SEC] Conns=[delta wye] kVs=[4.16        0.48] kVAs=[1000  1333] %Rs=[1.01        1.01] XHL=5.77 %Noloadloss=0 %imag=0 MaxTap=1.05 MinTap=0.95 NumTaps=4
New Transformer.T_314_B Windings=2 Buses=[BUS_T_314_PRI SOM_B] Conns=[delta wye] kVs=[12.47         0.48] kVAs=[1500  2000] %Rs=[0.89        0.89] XHL=5.79 %Noloadloss=0 %imag=0 MaxTap=1.05 MinTap=0.95 NumTaps=4
New Transformer.T_315_C Windings=2 Buses=[BUS_T_315_PRI SOM_C] Conns=[delta wye] kVs=[12.47         0.48] kVAs=[1500  2000] %Rs=[0.91        0.91] XHL=5.92 %Noloadloss=0 %imag=0 MaxTap=1.05 MinTap=0.95 NumTaps=4
New Transformer.T_316_A Windings=2 Buses=[BUS_T_316_PRI SOM_A] Conns=[delta wye] kVs=[12.47         0.48] kVAs=[1500  2000] %Rs=[0.88        0.88] XHL=5.76 %Noloadloss=0 %imag=0 MaxTap=1.05 MinTap=0.95 NumTaps=4
New Transformer.T_317_MC Windings=2 Buses=[BUS_T_317_PRI T_317_SEC] Conns=[delta wye] kVs=[12.47        0.208] kVAs=[150  150] %Rs=[1.11        1.11] XHL=4 %Noloadloss=0 %imag=0 MaxTap=1.05 MinTap=0.95 NumTaps=4
New Transformer.T_318_MULTIP_BLD Windings=2 Buses=[BUS_T_318_PRI MULT_BLD_SEC] Conns=[delta wye] kVs=[12.47         0.48] kVAs=[750  1000] %Rs=[1.03        1.03] XHL=5.4 %Noloadloss=0 %imag=0 MaxTap=1.05 MinTap=0.95 NumTaps=4
New Transformer.T_319_US_7N Windings=2 Buses=[T_319_PRI US_7N] Conns=[delta wye] kVs=[12.47         0.48] kVAs=[2000  2000] %Rs=[0.79        0.79] XHL=5.76 %Noloadloss=0 %imag=0 MaxTap=1.05 MinTap=0.95 NumTaps=4
New Transformer.T_320_LA_JOLLA Windings=2 Buses=[BLACK_BOX_PRI LA_JOLLA_PLAY] Conns=[delta wye] kVs=[12.47         0.48] kVAs=[1500  1500] %Rs=[0.88        0.88] XHL=5.75 %Noloadloss=0 %imag=0 MaxTap=1.05 MinTap=0.95 NumTaps=4
New Transformer.T_321_CAL_IT1B Windings=2 Buses=[US1B CAL_IT_US1B] Conns=[delta wye] kVs=[12.47         0.48] kVAs=[1500  2000] %Rs=[0.97        0.97] XHL=6.32 %Noloadloss=0 %imag=0 MaxTap=1.05 MinTap=0.95 NumTaps=4
New Transformer.T_322_CAL_IT1C Windings=2 Buses=[US1C CAL_IT_US1C] Conns=[delta wye] kVs=[12.47         0.48] kVAs=[1500  2000] %Rs=[0.97        0.97] XHL=6.32 %Noloadloss=0 %imag=0 MaxTap=1.05 MinTap=0.95 NumTaps=4
New Transformer.T_323_CAL_IT1A Windings=2 Buses=[T_323_PRI CAL_IT_US1A] Conns=[delta wye] kVs=[12.47         0.48] kVAs=[1500  2000] %Rs=[0.97        0.97] XHL=6.35 %Noloadloss=0 %imag=0 MaxTap=1.05 MinTap=0.95 NumTaps=4
New Transformer.T_324_EBU_3B Windings=2 Buses=[SW_T_324 EBU_3B_SUB_A] Conns=[delta wye] kVs=[12.47         0.48] kVAs=[1500  2000] %Rs=[0.87        0.87] XHL=5.69 %Noloadloss=0 %imag=0 MaxTap=1.05 MinTap=0.95 NumTaps=4
New Transformer.T_325_EBU_3B1 Windings=2 Buses=[SW_T_325 EBU_3B1_SUB_B] Conns=[delta wye] kVs=[12.47         0.48] kVAs=[1500  2000] %Rs=[0.85        0.85] XHL=5.59 %Noloadloss=0 %imag=0 MaxTap=1.05 MinTap=0.95 NumTaps=4
New Transformer.T_326 Windings=2 Buses=[BUS_T_326_PRI T_326_SEC] Conns=[delta wye] kVs=[12.47         0.48] kVAs=[500  500] %Rs=[0.98        0.98] XHL=4.62 %Noloadloss=0 %imag=0 MaxTap=1.05 MinTap=0.95 NumTaps=4
...